/*--------------------------------*- C++ -*----------------------------------*\
  =========                 |
  \\      /  F ield         | OpenFOAM: The Open Source CFD Toolbox
   \\    /   O peration     | Website:  https://openfoam.org
    \\  /    A nd           | Version:  9
     \\/     M anipulation  |
\*---------------------------------------------------------------------------*/
FoamFile
{
    format      ascii;
    class       dictionary;
    object      blockMeshDict;
}
// * * * * * * * * * * * * * * * * * * * * * * * * * * * * * * * * * * * * * //

convertToMeters 1;
//x_min 0;
//x_max 100;
//y_min 0;
//y_max 100;

//lx #calc "$x_max - $x_min";
//ly #calc "$y_max - $y_min";

//vertices
//(
//    ($x_min $y_min 0)
//    ($x_max $y_min 0)
//    ($x_max $y_max 0)
//    ($x_min $y_max 0)
//    ($x_min $y_min 0.01)
//    ($x_max $y_min 0.01)
//    ($x_max $y_max 0.01)
//    ($x_min $y_max 0.01)
//);

vertices
(
    (0 0 0)
    (200 0 0)
    (200 200 0)
    (0 200 0)
    (0 0 0.1)
    (200 0 0.1)
    (200 200 0.1)
    (0 200 0.1)
);

blocks
(
    hex (0 1 2 3 4 5 6 7) (74 74 1) simpleGrading (1 1 1)//这种网格划分法方式只能计算到74*74*1
);

edges
(
);

boundary
(
    bottom
    {
        type cyclic;
        neighbourPatch top;
        faces
        (
            (0 1 5 4)
        );
    }
    top
    {
        type cyclic;
        neighbourPatch bottom;
        faces
        (
            (2 3 7 6)
        );
    }
    left
    {
        type cyclic;
        neighbourPatch right;
        faces
        (
            (0 3 7 4)
        );
    }
    right
    {
        type cyclic;
        neighbourPatch left;
        faces
        (
            (1 2 6 5)
        );
    }
    frontAndBack
    {
        type empty;
        faces
        (
            (0 1 2 3)
            (4 5 6 7)
        );
    }
);

mergePatchPairs
(
);

// ************************************************************************* //

