/*--------------------------------*- C++ -*----------------------------------*\
  =========                 |
  \\      /  F ield         | OpenFOAM: The Open Source CFD Toolbox
   \\    /   O peration     | Website:  https://openfoam.org
    \\  /    A nd           | Version:  9
     \\/     M anipulation  |
\*---------------------------------------------------------------------------*/
FoamFile
{
    format      ascii;
    class       dictionary;
    location    "system";
    object      controlDict;
}
// * * * * * * * * * * * * * * * * * * * * * * * * * * * * * * * * * * * * * //

application     mySolverFoam;

startFrom       startTime;

startTime       0;

stopAt          endTime;

endTime         400;

deltaT          0.001;

writeControl    timeStep;

writeInterval   400;

purgeWrite      0;//一般这个设置为0就行

writeFormat     ascii;

writePrecision  6;//默认6

writeCompression off;

timeFormat      general;

timePrecision   6;

runTimeModifiable true;

/*adjustableTimeStep yes;  // 启用自动调整时间步长

maxDeltaT       0.01;    // 设置最大时间步长

minDeltaT       1e-8;    // 设置最小时间步长
*/
// ************************************************************************* //
