/*--------------------------------*- C++ -*----------------------------------*\
  =========                 |
  \\      /  F ield         | OpenFOAM: The Open Source CFD Toolbox
   \\    /   O peration     | Website:  https://openfoam.org
    \\  /    A nd           | Version:  9
     \\/     M anipulation  |
\*---------------------------------------------------------------------------*/
FoamFile
{ 
    format      ascii;
    class       dictionary;
    location    "constant";
    object      myProperties;
}
// * * * * * * * * * * * * * * * * * * * * * * * * * * * * * * * * * * * * * //

epsilon              epsilon [0 0 0 0 0 0 0] 0.01;

c_0                  c_0 [0 0 0 0 0 0 0] 0.5;

Q_s                  Q_s [0 0 0 0 0 0 0] 5.0;

c_alpha              c_alpha [0 0 0 0 0 0 0] 0.3;

c_beta               c_beta [0 0 0 0 0 0 0] 0.7;

M                    M [0 0 0 0 0 0 0] 5.0;

kappa                kappa [0 0 0 0 0 0 0] 2.0;

dim_t                dim_t [0 0 1 0 0 0 0] 1;

dim_x1	             dim_x1 [0 1 0 0 0 0 0] 1;

dim_x2               dim_x2 [0 2 0 0 0 0 0] 1;



// ************************************************************************* //
